Version 4
SHEET 1 880 680
WIRE 256 -160 112 -160
WIRE 112 -144 112 -160
WIRE 256 -64 256 -160
WIRE 112 -16 112 -64
WIRE 192 -16 112 -16
WIRE 16 64 -16 64
WIRE 112 64 112 -16
WIRE 112 64 80 64
WIRE 256 64 256 32
WIRE 368 64 256 64
WIRE 400 64 368 64
WIRE 256 112 256 64
WIRE -16 144 -16 64
WIRE 400 144 400 64
WIRE 112 160 112 64
WIRE 192 160 112 160
WIRE 112 192 112 160
WIRE -16 304 -16 224
WIRE 112 304 112 272
WIRE 112 304 -16 304
WIRE 256 304 256 208
WIRE 256 304 112 304
WIRE 400 304 400 224
WIRE 400 304 256 304
WIRE -16 336 -16 304
FLAG 256 -160 5V
FLAG 368 64 Vout
FLAG -352 144 5V
FLAG -352 224 0
FLAG -16 64 Vin
FLAG -16 336 0
SYMBOL npn 192 -64 R0
WINDOW 0 36 48 Left 2
WINDOW 3 -552 -21 Left 2
SYMATTR InstName NPN
SYMATTR Value BC817-40
SYMBOL res -496 -96 R0
WINDOW 0 -22 30 Left 2
WINDOW 3 -21 64 Left 1
SYMATTR InstName Rc
SYMATTR Value 300
SYMBOL res -576 -96 R0
WINDOW 0 -16 28 Left 2
WINDOW 3 -14 65 Left 1
SYMATTR InstName Re
SYMATTR Value 150
SYMBOL voltage -16 128 R0
WINDOW 123 0 0 Left 0
WINDOW 39 0 0 Left 0
WINDOW 0 -10 55 Left 2
WINDOW 3 -350 -99 Left 2
SYMATTR InstName AC
SYMATTR Value SINE(0.5 0.5 10k)
SYMBOL voltage -352 128 R0
WINDOW 0 -20 57 Left 2
WINDOW 3 40 56 Left 2
WINDOW 123 0 0 Left 0
WINDOW 39 0 0 Left 0
SYMATTR InstName VCC
SYMATTR Value 5
SYMBOL cap -528 64 R90
WINDOW 0 15 53 VBottom 1
WINDOW 3 -3 12 VTop 1
SYMATTR InstName Cin
SYMATTR Value 1µ
SYMBOL pnp 192 208 M180
WINDOW 0 36 45 Left 2
WINDOW 3 -552 267 Left 2
SYMATTR InstName PNP
SYMATTR Value BC807-40
SYMBOL res 384 128 R0
WINDOW 0 19 10 Left 2
WINDOW 3 24 50 Left 1
SYMATTR InstName Speaker
SYMATTR Value 4
SYMBOL cap 80 48 R90
WINDOW 0 15 53 VBottom 1
WINDOW 3 -3 12 VTop 1
SYMATTR InstName Cin1
SYMATTR Value 1µ
SYMBOL res 96 -160 R0
WINDOW 0 -23 27 Left 2
WINDOW 3 -22 62 Left 1
SYMATTR InstName Ra
SYMATTR Value 1.3k
SYMBOL res 96 176 R0
WINDOW 0 -17 28 Left 2
WINDOW 3 -17 64 Left 1
SYMATTR InstName Rb
SYMATTR Value 500
TEXT -368 56 Left 2 !.tran 0 100m 98m
